test_networks/archived/ieee730_1ph_rahul/Node730DG50/Opendss/singlephase730.dss
Clear
New Circuit.ckt730

~ basekv= 12.66 pu=1 phases=1 bus1=1 
~ Angle=0                                                       ! advance angle 30 deg so result agree with published angle 0.5774
~ MVAsc3=200000 MVASC1=2100000    ! stiffen the source to approximate inf source

redirect linenew.dss
redirect LoadTransformer.dss
redirect Loads.dss


set loadmult = 1
 
Set Voltagebases=[21.9278 0.416 ]
calcv
!Solve

!Show Voltages LN Nodes
!Show Powers kVA Elem


